10
18.0
Ar  0.204921  0.787011  3.216544
Ar  2.476088  2.324457  7.266916
Ar  3.145538  1.967675  9.196850
Ar  1.111987  2.083676  11.079322
Ar  3.763477  2.109997  15.012326
Ar  2.657304  5.243043  0.410503
Ar  2.504263  5.960630  6.681151
Ar  1.815691  6.695131  10.882620
Ar  0.000000  4.020843  12.698943
Ar  2.847223  4.642180  14.606164